full_87
  -OEChem-12021917153D

 18 17  0     1  0  0  0  0  0999 V2000
    1.5392   -1.5560    0.1314 H   0  0  0  0  0  0  0  0  0  0  0  0
    0.5392    0.4635    2.2605 H   0  0  0  0  0  0  0  0  0  0  0  0
    1.8057   -0.7285    2.5163 H   0  0  0  0  0  0  0  0  0  0  0  0
    0.9050   -0.9733   -2.1569 H   0  0  0  0  0  0  0  0  0  0  0  0
    1.5319    0.6806   -2.1499 H   0  0  0  0  0  0  0  0  0  0  0  0
   -0.2824    0.9344   -3.4953 H   0  0  0  0  0  0  0  0  0  0  0  0
   -1.2563   -0.0598   -2.6260 H   0  0  0  0  0  0  0  0  0  0  0  0
   -0.6413    1.6082   -0.8143 H   0  0  0  0  0  0  0  0  0  0  0  0
   -0.9408   -1.6575    0.9551 H   0  0  0  0  0  0  0  0  0  0  0  0
    0.9789   -0.7086    0.5185 C   0  5  3  0  0  0  0  0  0  0  0  0
    0.4723    0.1625   -0.3746 C   0  0  0  0  0  0  0  0  0  0  0  0
   -0.1673   -1.4885    2.6781 C   0  0  0  0  0  0  0  0  0  0  0  0
    0.8523   -0.5552    2.0107 C   0  0  0  0  0  0  0  0  0  0  0  0
    0.6706    0.0602   -1.8765 C   0  0  0  0  0  0  0  0  0  0  0  0
   -0.5096    0.6290   -2.5528 N   0  0  0  0  0  0  0  0  0  0  0  0
   -0.1511   -1.7606    3.8572 O   0  5  0  0  0  0  0  0  0  0  0  0
   -0.2307    1.2622    0.0118 O   0  3  0  0  0  0  0  0  0  0  0  0
   -1.1335   -1.9812    1.8583 O   0  3  0  0  0  0  0  0  0  0  0  0
 10 11  1  0  0  0  0
 11 14  1  0  0  0  0
 11 17  2  3  0  0  0
 12 13  1  0  0  0  0
 12 16  1  0  0  0  0
 12 18  2  3  0  0  0
 10 13  1  0  0  0  0
  1 10  1  0  0  0  0
 14 15  1  0  0  0  0
  4 14  1  0  0  0  0
  5 14  1  0  0  0  0
  2 13  1  0  0  0  0
  3 13  1  0  0  0  0
  6 15  1  0  0  0  0
  7 15  1  0  0  0  0
  8 17  1  0  0  0  0
  9 18  1  0  0  0  0
M  CHG  4  10  -1  16  -1  17   1  18   1
M  END
> <SMILES QCArchive>
C(CC(=O)[O-])C(=O)C[NH3+]-0

> <Energy QCArchive>
-298983.32453708706

$$$$
full_89
  -OEChem-12021917153D

 18 17  0     1  0  0  0  0  0999 V2000
    0.8747   -1.6484    0.5135 H   0  0  0  0  0  0  0  0  0  0  0  0
   -0.2995   -1.5406    2.7614 H   0  0  0  0  0  0  0  0  0  0  0  0
   -1.3203   -0.2317    2.1829 H   0  0  0  0  0  0  0  0  0  0  0  0
   -1.0108   -1.7679   -2.0628 H   0  0  0  0  0  0  0  0  0  0  0  0
    0.6795   -1.2752   -1.8936 H   0  0  0  0  0  0  0  0  0  0  0  0
   -0.9026   -0.1306   -3.6347 H   0  0  0  0  0  0  0  0  0  0  0  0
    0.0500    0.8689   -2.7480 H   0  0  0  0  0  0  0  0  0  0  0  0
    1.0989    0.8948    1.0474 H   0  0  0  0  0  0  0  0  0  0  0  0
   -1.9085    0.6246   -1.1450 H   0  0  0  0  0  0  0  0  0  0  0  0
    0.0378   -0.9801    0.7005 C   0  5  3  0  0  0  0  0  0  0  0  0
   -0.6488   -0.5294   -0.3665 C   0  0  0  0  0  0  0  0  0  0  0  0
    0.6113    0.3739    2.8039 C   0  0  0  0  0  0  0  0  0  0  0  0
   -0.3105   -0.6503    2.1275 C   0  0  0  0  0  0  0  0  0  0  0  0
   -0.3564   -0.9281   -1.8021 C   0  0  0  0  0  0  0  0  0  0  0  0
   -0.7104    0.1937   -2.6907 N   0  0  0  0  0  0  0  0  0  0  0  0
    0.7086    0.4937    4.0042 O   0  0  0  0  0  0  0  0  0  0  0  0
    1.3075    1.1809    1.9599 O   0  0  0  0  0  0  0  0  0  0  0  0
   -1.7211    0.2987   -0.2345 O   0  3  0  0  0  0  0  0  0  0  0  0
 10 11  1  0  0  0  0
 11 14  1  0  0  0  0
 11 18  2  3  0  0  0
 12 13  1  0  0  0  0
 12 17  1  0  0  0  0
 12 16  2  0  0  0  0
 10 13  1  0  0  0  0
  1 10  1  0  0  0  0
 14 15  1  0  0  0  0
  4 14  1  0  0  0  0
  5 14  1  0  0  0  0
  2 13  1  0  0  0  0
  3 13  1  0  0  0  0
  6 15  1  0  0  0  0
  7 15  1  0  0  0  0
  9 18  1  0  0  0  0
  8 17  1  0  0  0  0
M  CHG  2  10  -1  18   1
M  END
> <SMILES QCArchive>
C(CC(=O)[O-])C(=O)C[NH3+]-4

> <Energy QCArchive>
-298983.3244357681

$$$$
