full_96
  -OEChem-12021917203D

  5  4  0     0  0  0  0  0  0999 V2000
    0.6782   -0.6328    1.3646 H   0  0  0  0  0  0  0  0  0  0  0  0
   -0.4548    0.0455    0.0028 C   0  0  0  0  0  0  0  0  0  0  0  0
   -1.3593   -0.2095    0.8438 O   0  5  0  0  0  0  0  0  0  0  0  0
   -0.4818    0.5227   -1.1459 O   0  0  0  0  0  0  0  0  0  0  0  0
    0.8786   -0.2875    0.4790 O   0  0  0  0  0  0  0  0  0  0  0  0
  2  3  1  0  0  0  0
  2  4  2  0  0  0  0
  2  5  1  0  0  0  0
  1  5  1  0  0  0  0
M  CHG  1   3  -1
M  END
> <SMILES QCArchive>
C(=O)(O)[O-]-0

> <Energy QCArchive>
-165980.43399992233

$$$$
full_229
  -OEChem-12021917203D

 31 33  0     1  0  0  0  0  0999 V2000
   -9.2887   -2.9458    1.0433 H   0  0  0  0  0  0  0  0  0  0  0  0
   -6.8893   -3.2794   -1.8852 H   0  0  0  0  0  0  0  0  0  0  0  0
   -7.9147   -4.2455   -0.7900 H   0  0  0  0  0  0  0  0  0  0  0  0
   -3.8007   -2.3436    1.3095 H   0  0  0  0  0  0  0  0  0  0  0  0
   -5.4025   -1.5909    1.1058 H   0  0  0  0  0  0  0  0  0  0  0  0
   -6.1543   -3.7196    1.0310 H   0  0  0  0  0  0  0  0  0  0  0  0
   -5.4532    1.1490   -2.1248 H   0  0  0  0  0  0  0  0  0  0  0  0
   -5.2678   -5.3290   -1.4304 H   0  0  0  0  0  0  0  0  0  0  0  0
   -4.5981   -5.4958    0.2000 H   0  0  0  0  0  0  0  0  0  0  0  0
   -6.2931   -5.9590   -0.1148 H   0  0  0  0  0  0  0  0  0  0  0  0
   -9.1552    1.8478    1.4622 H   0  0  0  0  0  0  0  0  0  0  0  0
   -8.2740    3.0999    0.7965 H   0  0  0  0  0  0  0  0  0  0  0  0
   -8.7720   -2.0802    0.6406 C   0  0  0  0  0  0  0  0  0  0  0  0
   -8.0636   -0.0871    0.2395 C   0  0  0  0  0  0  0  0  0  0  0  0
   -7.3464   -0.9203   -0.6586 C   0  0  0  0  0  0  0  0  0  0  0  0
   -7.8661    1.3060    0.0224 C   0  0  0  0  0  0  0  0  0  0  0  0
   -7.1886   -3.4199   -0.8410 C   0  0  0  0  0  0  0  0  0  0  0  0
   -4.5039   -1.9237    0.5745 C   0  0  0  0  0  0  0  0  0  0  0  0
   -5.9183   -3.7958   -0.0430 C   0  0  1  0  0  0  0  0  0  0  0  0
   -5.9574    0.7518   -1.2399 C   0  0  0  0  0  0  0  0  0  0  0  0
   -5.5014   -5.2384   -0.3629 C   0  0  0  0  0  0  0  0  0  0  0  0
   -8.9550   -0.8299    1.0175 N   0  0  0  0  0  0  0  0  0  0  0  0
   -6.4478   -0.5766   -1.5452 N   0  0  0  0  0  0  0  0  0  0  0  0
   -6.9305    1.7518   -0.7746 N   0  0  0  0  0  0  0  0  0  0  0  0
   -7.8408   -2.2096   -0.3987 N   0  0  0  0  0  0  0  0  0  0  0  0
   -8.7809    2.2400    0.6012 N   0  0  0  0  0  0  0  0  0  0  0  0
   -3.0570   -0.6164   -1.4623 O   0  5  0  0  0  0  0  0  0  0  0  0
   -2.8409    0.0852    1.0799 O   0  0  0  0  0  0  0  0  0  0  0  0
   -4.8335   -2.9572   -0.3781 O   0  0  0  0  0  0  0  0  0  0  0  0
   -4.9406    0.7032   -0.1703 O   0  0  0  0  0  0  0  0  0  0  0  0
   -3.6751   -0.3710   -0.1060 P   0  0  2  0  0  0  0  0  0  0  0  0
 20 23  1  0  0  0  0
 20 24  2  0  0  0  0
  7 20  1  0  0  0  0
 13 22  2  0  0  0  0
 13 25  1  0  0  0  0
  1 13  1  0  0  0  0
 14 15  1  0  0  0  0
 14 16  2  0  0  0  0
 14 22  1  0  0  0  0
 15 23  2  0  0  0  0
 15 25  1  0  0  0  0
 16 24  1  0  0  0  0
 16 26  1  0  0  0  0
 19 21  1  0  0  0  0
  8 21  1  0  0  0  0
  9 21  1  0  0  0  0
 10 21  1  0  0  0  0
 17 19  1  0  0  0  0
 17 25  1  0  0  0  0
  2 17  1  0  0  0  0
  3 17  1  0  0  0  0
 18 29  1  0  0  0  0
 18 31  1  0  0  0  0
  4 18  1  0  0  0  0
  5 18  1  0  0  0  0
 19 29  1  0  0  0  0
  6 19  1  0  0  0  0
 11 26  1  0  0  0  0
 12 26  1  0  0  0  0
 27 31  1  0  0  0  0
 30 31  1  0  0  0  0
 28 31  2  0  0  0  0
 20 30  1  0  0  0  0
M  CHG  1  27  -1
M  END
> <SMILES QCArchive>
C[C@H](Cn1cnc2c1ncnc2N)OCP(=O)([O-])[O-]-0

> <Energy QCArchive>
-794678.9036357744

$$$$
full_591
  -OEChem-12021917203D

 36 38  0     1  0  0  0  0  0999 V2000
   -1.8317    5.6032    0.2070 H   0  0  0  0  0  0  0  0  0  0  0  0
   -2.8801    3.5917   -0.8112 H   0  0  0  0  0  0  0  0  0  0  0  0
    0.3261    5.3938    1.4285 H   0  0  0  0  0  0  0  0  0  0  0  0
   -1.7885    1.3887   -0.6233 H   0  0  0  0  0  0  0  0  0  0  0  0
    1.4190    3.1830    1.6437 H   0  0  0  0  0  0  0  0  0  0  0  0
   -1.1309   -2.0183   -2.7225 H   0  0  0  0  0  0  0  0  0  0  0  0
    0.8992   -1.6537   -4.1237 H   0  0  0  0  0  0  0  0  0  0  0  0
    2.5950    0.7692   -1.0030 H   0  0  0  0  0  0  0  0  0  0  0  0
   -0.4323   -1.7852    2.7525 H   0  0  0  0  0  0  0  0  0  0  0  0
    0.4963   -1.8632    1.1935 H   0  0  0  0  0  0  0  0  0  0  0  0
    1.6024    0.9758    1.0272 H   0  0  0  0  0  0  0  0  0  0  0  0
   -4.0027   -0.1234    0.4384 H   0  0  0  0  0  0  0  0  0  0  0  0
   -4.7947   -0.9757    1.7844 H   0  0  0  0  0  0  0  0  0  0  0  0
   -4.3107   -1.8710    0.3167 H   0  0  0  0  0  0  0  0  0  0  0  0
   -2.7295   -1.6464    2.5831 H   0  0  0  0  0  0  0  0  0  0  0  0
   -1.3516    4.6336    0.3020 C   0  0  0  0  0  0  0  0  0  0  0  0
   -1.9433    3.5009   -0.2690 C   0  0  0  0  0  0  0  0  0  0  0  0
   -0.1392    4.5176    0.9869 C   0  0  0  0  0  0  0  0  0  0  0  0
   -1.3269    2.2537   -0.1583 C   0  0  0  0  0  0  0  0  0  0  0  0
    0.4785    3.2701    1.1048 C   0  0  0  0  0  0  0  0  0  0  0  0
   -0.3057   -1.4145   -2.3587 C   0  0  0  0  0  0  0  0  0  0  0  0
    0.8214   -1.2168   -3.1335 C   0  0  0  0  0  0  0  0  0  0  0  0
    1.7832    0.1407   -1.3573 C   0  0  0  0  0  0  0  0  0  0  0  0
   -0.1141    2.1377    0.5346 C   0  0  0  0  0  0  0  0  0  0  0  0
    0.6418   -0.0411   -0.5685 C   0  0  0  0  0  0  0  0  0  0  0  0
   -0.4141   -0.8710   -1.0547 C   0  0  0  0  0  0  0  0  0  0  0  0
    1.8755   -0.4377   -2.6226 C   0  0  0  0  0  0  0  0  0  0  0  0
   -1.5982   -1.3272    0.9263 C   0  0  0  0  0  0  0  0  0  0  0  0
   -0.2986   -1.3687    1.7547 C   0  0  0  0  0  0  0  0  0  0  0  0
    0.5754    0.7915    0.6902 C   0  0  2  0  0  0  0  0  0  0  0  0
   -4.0437   -1.0592    0.9990 C   0  0  0  0  0  0  0  0  0  0  0  0
   -1.5611   -1.1832   -0.3604 N   0  0  0  0  0  0  0  0  0  0  0  0
   -0.0121    0.0513    1.8810 N   0  3  0  0  0  0  0  0  0  0  0  0
   -2.7433   -1.3130    1.6279 N   0  0  0  0  0  0  0  0  0  0  0  0
   -0.4494    0.6702    2.8391 O   0  0  0  0  0  0  0  0  0  0  0  0
    3.2913   -0.1705   -3.5851 Cl  0  0  0  0  0  0  0  0  0  0  0  0
 16 18  2  0  0  0  0
 16 17  1  0  0  0  0
  1 16  1  0  0  0  0
 17 19  2  0  0  0  0
  2 17  1  0  0  0  0
 18 20  1  0  0  0  0
  3 18  1  0  0  0  0
 19 24  1  0  0  0  0
  4 19  1  0  0  0  0
 20 24  2  0  0  0  0
  5 20  1  0  0  0  0
 21 22  2  0  0  0  0
 21 26  1  0  0  0  0
  6 21  1  0  0  0  0
 22 27  1  0  0  0  0
  7 22  1  0  0  0  0
 23 25  1  0  0  0  0
 23 27  2  0  0  0  0
  8 23  1  0  0  0  0
 24 30  1  0  0  0  0
 25 26  2  0  0  0  0
 25 30  1  0  0  0  0
 26 32  1  0  0  0  0
 27 36  1  0  0  0  0
 28 29  1  0  0  0  0
 28 32  2  0  0  0  0
 28 34  1  0  0  0  0
 29 33  1  0  0  0  0
  9 29  1  0  0  0  0
 10 29  1  0  0  0  0
 30 33  1  0  0  0  0
 11 30  1  0  0  0  0
 31 34  1  0  0  0  0
 12 31  1  0  0  0  0
 13 31  1  0  0  0  0
 14 31  1  0  0  0  0
 33 35  2  0  0  0  0
 15 34  1  0  0  0  0
M  CHG  1  33   1
M  END
> <SMILES QCArchive>
CNC1=Nc2ccc(cc2[C@H]([N+](=O)C1)c3ccccc3)Cl-0

> <Energy QCArchive>
-827188.4771650046

$$$$
full_591
  -OEChem-12021917203D

 36 38  0     1  0  0  0  0  0999 V2000
    6.6254    0.2400   -0.3175 H   0  0  0  0  0  0  0  0  0  0  0  0
    5.0275   -1.1723   -1.5989 H   0  0  0  0  0  0  0  0  0  0  0  0
    5.7815    1.8065    1.4208 H   0  0  0  0  0  0  0  0  0  0  0  0
    2.6068   -1.0370   -1.1381 H   0  0  0  0  0  0  0  0  0  0  0  0
    3.3498    1.9874    1.8562 H   0  0  0  0  0  0  0  0  0  0  0  0
   -2.6003   -2.0229    0.5854 H   0  0  0  0  0  0  0  0  0  0  0  0
   -1.3985   -3.9397    1.6337 H   0  0  0  0  0  0  0  0  0  0  0  0
    2.2285   -1.6398    1.6050 H   0  0  0  0  0  0  0  0  0  0  0  0
    0.4643   -0.0323   -1.7844 H   0  0  0  0  0  0  0  0  0  0  0  0
    0.3005    1.6373   -2.4742 H   0  0  0  0  0  0  0  0  0  0  0  0
    1.1660    1.2684    1.5276 H   0  0  0  0  0  0  0  0  0  0  0  0
   -4.0470    1.6504   -1.0183 H   0  0  0  0  0  0  0  0  0  0  0  0
   -3.6406    3.3875   -1.1021 H   0  0  0  0  0  0  0  0  0  0  0  0
   -3.1936    2.4307    0.3313 H   0  0  0  0  0  0  0  0  0  0  0  0
   -1.7462    2.6413   -2.2016 H   0  0  0  0  0  0  0  0  0  0  0  0
    5.5593    0.3124   -0.1228 C   0  0  0  0  0  0  0  0  0  0  0  0
    4.6614   -0.4822   -0.8445 C   0  0  0  0  0  0  0  0  0  0  0  0
    5.0854    1.1964    0.8529 C   0  0  0  0  0  0  0  0  0  0  0  0
    3.2923   -0.3947   -0.5917 C   0  0  0  0  0  0  0  0  0  0  0  0
    3.7150    1.2945    1.1029 C   0  0  0  0  0  0  0  0  0  0  0  0
   -1.5395   -1.9600    0.8054 C   0  0  0  0  0  0  0  0  0  0  0  0
   -0.8745   -3.0228    1.3843 C   0  0  0  0  0  0  0  0  0  0  0  0
    1.1788   -1.7175    1.3478 C   0  0  0  0  0  0  0  0  0  0  0  0
    2.8172    0.4881    0.3929 C   0  0  0  0  0  0  0  0  0  0  0  0
    0.5189   -0.6329    0.7562 C   0  0  0  0  0  0  0  0  0  0  0  0
   -0.8730   -0.7586    0.4486 C   0  0  0  0  0  0  0  0  0  0  0  0
    0.4984   -2.8957    1.6526 C   0  0  0  0  0  0  0  0  0  0  0  0
   -1.2745    1.0464   -1.0345 C   0  0  0  0  0  0  0  0  0  0  0  0
    0.1528    0.9970   -1.6054 C   0  0  0  0  0  0  0  0  0  0  0  0
    1.3197    0.6517    0.6381 C   0  0  2  0  0  0  0  0  0  0  0  0
   -3.3062    2.4102   -0.7542 C   0  0  0  0  0  0  0  0  0  0  0  0
   -1.6743    0.1825   -0.1580 N   0  0  0  0  0  0  0  0  0  0  0  0
    0.8863    1.5546   -0.4795 N   0  3  0  0  0  0  0  0  0  0  0  0
   -2.0124    2.1155   -1.3793 N   0  0  0  0  0  0  0  0  0  0  0  0
    1.0050    2.7700   -0.3757 O   0  0  0  0  0  0  0  0  0  0  0  0
    1.3542   -4.2052    2.4013 Cl  0  0  0  0  0  0  0  0  0  0  0  0
 16 18  2  0  0  0  0
 16 17  1  0  0  0  0
  1 16  1  0  0  0  0
 17 19  2  0  0  0  0
  2 17  1  0  0  0  0
 18 20  1  0  0  0  0
  3 18  1  0  0  0  0
 19 24  1  0  0  0  0
  4 19  1  0  0  0  0
 20 24  2  0  0  0  0
  5 20  1  0  0  0  0
 21 22  2  0  0  0  0
 21 26  1  0  0  0  0
  6 21  1  0  0  0  0
 22 27  1  0  0  0  0
  7 22  1  0  0  0  0
 23 25  1  0  0  0  0
 23 27  2  0  0  0  0
  8 23  1  0  0  0  0
 24 30  1  0  0  0  0
 25 26  2  0  0  0  0
 25 30  1  0  0  0  0
 26 32  1  0  0  0  0
 27 36  1  0  0  0  0
 28 29  1  0  0  0  0
 28 32  2  0  0  0  0
 28 34  1  0  0  0  0
 29 33  1  0  0  0  0
  9 29  1  0  0  0  0
 10 29  1  0  0  0  0
 30 33  1  0  0  0  0
 11 30  1  0  0  0  0
 31 34  1  0  0  0  0
 12 31  1  0  0  0  0
 13 31  1  0  0  0  0
 14 31  1  0  0  0  0
 33 35  2  0  0  0  0
 15 34  1  0  0  0  0
M  CHG  1  33   1
M  END
> <SMILES QCArchive>
CNC1=Nc2ccc(cc2[C@H]([N+](=O)C1)c3ccccc3)Cl-1

> <Energy QCArchive>
-827188.6799633015

$$$$
full_592
  -OEChem-12021917203D

 36 38  0     1  0  0  0  0  0999 V2000
    5.2532   -2.7020    1.7994 H   0  0  0  0  0  0  0  0  0  0  0  0
    4.9812   -0.3013    1.2033 H   0  0  0  0  0  0  0  0  0  0  0  0
    3.2463   -4.0763    2.3316 H   0  0  0  0  0  0  0  0  0  0  0  0
    2.7302    0.7096    1.1081 H   0  0  0  0  0  0  0  0  0  0  0  0
    0.9945   -3.0702    2.2564 H   0  0  0  0  0  0  0  0  0  0  0  0
    0.5555    2.1080   -2.2439 H   0  0  0  0  0  0  0  0  0  0  0  0
   -0.0283    4.1865   -1.0246 H   0  0  0  0  0  0  0  0  0  0  0  0
   -0.4176    1.9362    2.6222 H   0  0  0  0  0  0  0  0  0  0  0  0
   -1.4013   -2.7294   -0.3322 H   0  0  0  0  0  0  0  0  0  0  0  0
   -0.0206   -0.3442    2.6773 H   0  0  0  0  0  0  0  0  0  0  0  0
    2.4123   -2.0026   -2.9829 H   0  0  0  0  0  0  0  0  0  0  0  0
    0.9582   -1.3783   -3.8330 H   0  0  0  0  0  0  0  0  0  0  0  0
    1.3464   -3.1017   -3.8716 H   0  0  0  0  0  0  0  0  0  0  0  0
    1.4672   -0.1675   -1.9529 H   0  0  0  0  0  0  0  0  0  0  0  0
    0.2652   -3.4070   -1.8718 H   0  0  0  0  0  0  0  0  0  0  0  0
    4.2620   -2.2603    1.7523 C   0  0  0  0  0  0  0  0  0  0  0  0
    4.1088   -0.9131    1.4147 C   0  0  0  0  0  0  0  0  0  0  0  0
    3.1337   -3.0338    2.0479 C   0  0  0  0  0  0  0  0  0  0  0  0
    2.8332   -0.3424    1.3571 C   0  0  0  0  0  0  0  0  0  0  0  0
    1.8600   -2.4643    1.9988 C   0  0  0  0  0  0  0  0  0  0  0  0
    0.3579    2.0713   -1.1757 C   0  0  0  0  0  0  0  0  0  0  0  0
    0.0224    3.2399   -0.4969 C   0  0  0  0  0  0  0  0  0  0  0  0
   -0.2070    1.9653    1.5576 C   0  0  0  0  0  0  0  0  0  0  0  0
    1.7024   -1.1177    1.6396 C   0  0  0  0  0  0  0  0  0  0  0  0
    0.1584    0.7964    0.8866 C   0  0  0  0  0  0  0  0  0  0  0  0
    0.4168    0.8544   -0.4897 C   0  0  0  0  0  0  0  0  0  0  0  0
   -0.2688    3.1802    0.8709 C   0  0  0  0  0  0  0  0  0  0  0  0
   -0.6937   -1.9381   -0.1153 C   0  0  0  0  0  0  0  0  0  0  0  0
    0.2466   -1.5409   -1.1243 C   0  0  0  0  0  0  0  0  0  0  0  0
    0.3118   -0.4921    1.6496 C   0  0  1  0  0  0  0  0  0  0  0  0
    1.3691   -2.2081   -3.2491 C   0  0  0  0  0  0  0  0  0  0  0  0
    0.7804   -0.3124   -1.2203 N   0  0  0  0  0  0  0  0  0  0  0  0
   -0.7208   -1.4837    1.1372 N   0  3  0  0  0  0  0  0  0  0  0  0
    0.5519   -2.4544   -2.0610 N   0  0  0  0  0  0  0  0  0  0  0  0
   -1.5568   -1.8897    1.9710 O   0  0  0  0  0  0  0  0  0  0  0  0
   -0.6988    4.6296    1.7257 Cl  0  0  0  0  0  0  0  0  0  0  0  0
 16 18  2  0  0  0  0
 16 17  1  0  0  0  0
  1 16  1  0  0  0  0
 17 19  2  0  0  0  0
  2 17  1  0  0  0  0
 18 20  1  0  0  0  0
  3 18  1  0  0  0  0
 19 24  1  0  0  0  0
  4 19  1  0  0  0  0
 20 24  2  0  0  0  0
  5 20  1  0  0  0  0
 21 22  2  0  0  0  0
 21 26  1  0  0  0  0
  6 21  1  0  0  0  0
 22 27  1  0  0  0  0
  7 22  1  0  0  0  0
 23 25  1  0  0  0  0
 23 27  2  0  0  0  0
  8 23  1  0  0  0  0
 24 30  1  0  0  0  0
 25 26  2  0  0  0  0
 25 30  1  0  0  0  0
 26 32  1  0  0  0  0
 27 36  1  0  0  0  0
 28 29  2  0  0  0  0
 28 33  1  0  0  0  0
  9 28  1  0  0  0  0
 29 32  1  0  0  0  0
 29 34  1  0  0  0  0
 30 33  1  0  0  0  0
 10 30  1  0  0  0  0
 31 34  1  0  0  0  0
 11 31  1  0  0  0  0
 12 31  1  0  0  0  0
 13 31  1  0  0  0  0
 14 32  1  0  0  0  0
 33 35  2  0  0  0  0
 15 34  1  0  0  0  0
M  CHG  1  33   1
M  END
> <SMILES QCArchive>
CNC1=C[N+](=O)[C@H](c2cc(ccc2N1)Cl)c3ccccc3-0

> <Energy QCArchive>
-827215.3207833982

$$$$
full_592
  -OEChem-12021917203D

 36 38  0     1  0  0  0  0  0999 V2000
   -0.0201   -1.4677    6.6140 H   0  0  0  0  0  0  0  0  0  0  0  0
    1.8519   -0.2525    5.5146 H   0  0  0  0  0  0  0  0  0  0  0  0
   -1.7292   -2.6263    5.2236 H   0  0  0  0  0  0  0  0  0  0  0  0
    2.0217   -0.1872    3.0581 H   0  0  0  0  0  0  0  0  0  0  0  0
   -1.5680   -2.5637    2.7580 H   0  0  0  0  0  0  0  0  0  0  0  0
   -0.9446    1.2345   -2.4969 H   0  0  0  0  0  0  0  0  0  0  0  0
   -0.9018    3.3710   -1.2364 H   0  0  0  0  0  0  0  0  0  0  0  0
    0.2534    1.2514    2.3214 H   0  0  0  0  0  0  0  0  0  0  0  0
    2.4948   -2.7679   -0.9476 H   0  0  0  0  0  0  0  0  0  0  0  0
   -0.5333   -2.0077    0.8659 H   0  0  0  0  0  0  0  0  0  0  0  0
   -1.4561   -3.1341   -3.5005 H   0  0  0  0  0  0  0  0  0  0  0  0
   -0.1034   -3.7144   -4.4829 H   0  0  0  0  0  0  0  0  0  0  0  0
   -0.3115   -1.9747   -4.2553 H   0  0  0  0  0  0  0  0  0  0  0  0
   -1.1313   -1.1884   -2.2660 H   0  0  0  0  0  0  0  0  0  0  0  0
    1.0645   -3.8492   -2.5138 H   0  0  0  0  0  0  0  0  0  0  0  0
    0.0474   -1.4383    5.5302 C   0  0  0  0  0  0  0  0  0  0  0  0
    1.0990   -0.7521    4.9119 C   0  0  0  0  0  0  0  0  0  0  0  0
   -0.9122   -2.0891    4.7511 C   0  0  0  0  0  0  0  0  0  0  0  0
    1.1904   -0.7074    3.5211 C   0  0  0  0  0  0  0  0  0  0  0  0
   -0.8174   -2.0529    3.3576 C   0  0  0  0  0  0  0  0  0  0  0  0
   -0.6807    1.2365   -1.4424 C   0  0  0  0  0  0  0  0  0  0  0  0
   -0.6520    2.4384   -0.7416 C   0  0  0  0  0  0  0  0  0  0  0  0
    0.0262    1.2380    1.2630 C   0  0  0  0  0  0  0  0  0  0  0  0
    0.2282   -1.3599    2.7320 C   0  0  0  0  0  0  0  0  0  0  0  0
   -0.0080    0.0272    0.5674 C   0  0  0  0  0  0  0  0  0  0  0  0
   -0.3505    0.0425   -0.7936 C   0  0  0  0  0  0  0  0  0  0  0  0
   -0.2901    2.4309    0.6102 C   0  0  0  0  0  0  0  0  0  0  0  0
    1.5743   -2.2840   -0.6429 C   0  0  0  0  0  0  0  0  0  0  0  0
    0.5060   -2.1528   -1.5865 C   0  0  0  0  0  0  0  0  0  0  0  0
    0.2307   -1.3155    1.2298 C   0  0  1  0  0  0  0  0  0  0  0  0
   -0.4096   -2.9505   -3.7691 C   0  0  0  0  0  0  0  0  0  0  0  0
   -0.4161   -1.1703   -1.5461 N   0  0  0  0  0  0  0  0  0  0  0  0
    1.5451   -1.8811    0.6323 N   0  3  0  0  0  0  0  0  0  0  0  0
    0.4697   -3.0341   -2.6018 N   0  0  0  0  0  0  0  0  0  0  0  0
    2.5427   -1.9844    1.3624 O   0  0  0  0  0  0  0  0  0  0  0  0
   -0.2580    3.9250    1.4986 Cl  0  0  0  0  0  0  0  0  0  0  0  0
 16 18  2  0  0  0  0
 16 17  1  0  0  0  0
  1 16  1  0  0  0  0
 17 19  2  0  0  0  0
  2 17  1  0  0  0  0
 18 20  1  0  0  0  0
  3 18  1  0  0  0  0
 19 24  1  0  0  0  0
  4 19  1  0  0  0  0
 20 24  2  0  0  0  0
  5 20  1  0  0  0  0
 21 22  2  0  0  0  0
 21 26  1  0  0  0  0
  6 21  1  0  0  0  0
 22 27  1  0  0  0  0
  7 22  1  0  0  0  0
 23 25  1  0  0  0  0
 23 27  2  0  0  0  0
  8 23  1  0  0  0  0
 24 30  1  0  0  0  0
 25 26  2  0  0  0  0
 25 30  1  0  0  0  0
 26 32  1  0  0  0  0
 27 36  1  0  0  0  0
 28 29  2  0  0  0  0
 28 33  1  0  0  0  0
  9 28  1  0  0  0  0
 29 32  1  0  0  0  0
 29 34  1  0  0  0  0
 30 33  1  0  0  0  0
 10 30  1  0  0  0  0
 31 34  1  0  0  0  0
 11 31  1  0  0  0  0
 12 31  1  0  0  0  0
 13 31  1  0  0  0  0
 14 32  1  0  0  0  0
 33 35  2  0  0  0  0
 15 34  1  0  0  0  0
M  CHG  1  33   1
M  END
> <SMILES QCArchive>
CNC1=C[N+](=O)[C@H](c2cc(ccc2N1)Cl)c3ccccc3-1

> <Energy QCArchive>
-827210.831107673

$$$$
full_3673
  -OEChem-12021917203D

 24 25  0     1  0  0  0  0  0999 V2000
    0.6628    1.7891   -5.8154 H   0  0  0  0  0  0  0  0  0  0  0  0
    1.8055    1.5222   -3.4977 H   0  0  0  0  0  0  0  0  0  0  0  0
   -1.8113    2.0093   -5.8615 H   0  0  0  0  0  0  0  0  0  0  0  0
    0.1849    1.9662   -0.3848 H   0  0  0  0  0  0  0  0  0  0  0  0
    1.6302    1.2480   -1.0927 H   0  0  0  0  0  0  0  0  0  0  0  0
   -1.9748    2.0815   -1.7970 H   0  0  0  0  0  0  0  0  0  0  0  0
    1.5290   -1.4747   -0.6506 H   0  0  0  0  0  0  0  0  0  0  0  0
    0.0978    1.8326   -4.8779 C   0  0  0  0  0  0  0  0  0  0  0  0
    0.7125    1.5749   -3.5839 C   0  0  0  0  0  0  0  0  0  0  0  0
   -1.3093    1.8330   -4.8834 C   0  0  0  0  0  0  0  0  0  0  0  0
   -0.0306    1.4142   -2.4549 C   0  0  0  0  0  0  0  0  0  0  0  0
    0.5348    1.1835   -1.0708 C   0  0  0  0  0  0  0  0  0  0  0  0
   -1.5467    1.3917   -2.5445 C   0  0  0  0  0  0  0  0  0  0  0  0
    0.1714   -0.1827   -0.3887 C   0  0  2  0  0  0  0  0  0  0  0  0
   -2.1401    1.7130   -3.8526 N   0  0  0  0  0  0  0  0  0  0  0  0
   -2.2831   -1.7255   -0.3126 O   0  5  0  0  0  0  0  0  0  0  0  0
    2.4297   -1.1392    0.7491 O   0  5  0  0  0  0  0  0  0  0  0  0
    0.4461   -1.0314    2.4323 O   0  5  0  0  0  0  0  0  0  0  0  0
   -2.3536    0.8235    0.3582 O   0  0  0  0  0  0  0  0  0  0  0  0
    1.6545    1.1603    1.7007 O   0  0  0  0  0  0  0  0  0  0  0  0
   -1.9858    0.0621   -2.1064 O   0  0  0  0  0  0  0  0  0  0  0  0
    0.7205   -1.2551   -1.1991 O   0  0  0  0  0  0  0  0  0  0  0  0
   -1.7245   -0.3150   -0.4483 P   0  0  1  0  0  0  0  0  0  0  0  0
    1.2260   -0.2846    1.3289 P   0  0  0  0  0  0  0  0  0  0  0  0
  8  9  1  0  0  0  0
  8 10  2  0  0  0  0
  1  8  1  0  0  0  0
  9 11  2  0  0  0  0
  2  9  1  0  0  0  0
 10 15  1  0  0  0  0
  3 10  1  0  0  0  0
 11 13  1  0  0  0  0
 13 15  2  0  0  0  0
  6 13  1  0  0  0  0
 11 12  1  0  0  0  0
 12 14  1  0  0  0  0
  4 12  1  0  0  0  0
  5 12  1  0  0  0  0
 14 22  1  0  0  0  0
 14 24  1  0  0  0  0
 14 23  1  0  0  0  0
 17 24  1  0  0  0  0
 18 24  1  0  0  0  0
 16 23  1  0  0  0  0
 21 23  1  0  0  0  0
 20 24  2  0  0  0  0
 19 23  2  0  0  0  0
  7 22  1  0  0  0  0
 13 21  1  0  0  0  0
M  CHG  3  16  -1  17  -1  18  -1
M  END
> <SMILES QCArchive>
c1cc(cnc1)CC(O)(P(=O)([O-])[O-])P(=O)([O-])[O-]-0

> <Energy QCArchive>
-963088.9477774394

$$$$
full_3673
  -OEChem-12021917203D

 24 25  0     1  0  0  0  0  0999 V2000
   -2.7675    2.5067   -4.3845 H   0  0  0  0  0  0  0  0  0  0  0  0
   -2.3515    2.2653   -1.8320 H   0  0  0  0  0  0  0  0  0  0  0  0
   -0.8493    2.0936   -5.9086 H   0  0  0  0  0  0  0  0  0  0  0  0
   -0.8850    1.6690    0.0058 H   0  0  0  0  0  0  0  0  0  0  0  0
    0.8291    1.9069   -0.3274 H   0  0  0  0  0  0  0  0  0  0  0  0
    1.6794    1.6375   -2.7544 H   0  0  0  0  0  0  0  0  0  0  0  0
   -1.2951   -1.0235    0.4575 H   0  0  0  0  0  0  0  0  0  0  0  0
   -1.7749    2.2939   -3.9729 C   0  0  0  0  0  0  0  0  0  0  0  0
   -1.5548    2.0482   -2.5552 C   0  0  0  0  0  0  0  0  0  0  0  0
   -0.7065    1.9360   -4.8157 C   0  0  0  0  0  0  0  0  0  0  0  0
   -0.3709    1.5699   -2.0837 C   0  0  0  0  0  0  0  0  0  0  0  0
   -0.0543    1.3265   -0.6245 C   0  0  0  0  0  0  0  0  0  0  0  0
    0.7254    1.1731   -3.0576 C   0  0  0  0  0  0  0  0  0  0  0  0
    0.2470   -0.1584   -0.2157 C   0  0  1  0  0  0  0  0  0  0  0  0
    0.4979    1.4862   -4.4776 N   0  0  0  0  0  0  0  0  0  0  0  0
    1.7395   -2.2719   -1.5257 O   0  5  0  0  0  0  0  0  0  0  0  0
    1.4594   -1.2409    2.2568 O   0  5  0  0  0  0  0  0  0  0  0  0
   -1.0699   -0.6432    2.0954 O   0  5  0  0  0  0  0  0  0  0  0  0
    2.8858    0.0773   -1.1788 O   0  0  0  0  0  0  0  0  0  0  0  0
    0.7075    1.2559    2.2649 O   0  0  0  0  0  0  0  0  0  0  0  0
    0.9517   -0.2669   -2.8907 O   0  0  0  0  0  0  0  0  0  0  0  0
   -0.9411   -0.9513   -0.4765 O   0  0  0  0  0  0  0  0  0  0  0  0
    1.6211   -0.7600   -1.3841 P   0  0  2  0  0  0  0  0  0  0  0  0
    0.4215   -0.1957    1.7949 P   0  0  0  0  0  0  0  0  0  0  0  0
  8  9  1  0  0  0  0
  8 10  2  0  0  0  0
  1  8  1  0  0  0  0
  9 11  2  0  0  0  0
  2  9  1  0  0  0  0
 10 15  1  0  0  0  0
  3 10  1  0  0  0  0
 11 13  1  0  0  0  0
 13 15  2  0  0  0  0
  6 13  1  0  0  0  0
 11 12  1  0  0  0  0
 12 14  1  0  0  0  0
  4 12  1  0  0  0  0
  5 12  1  0  0  0  0
 14 22  1  0  0  0  0
 14 24  1  0  0  0  0
 14 23  1  0  0  0  0
 17 24  1  0  0  0  0
 18 24  1  0  0  0  0
 16 23  1  0  0  0  0
 21 23  1  0  0  0  0
 20 24  2  0  0  0  0
 19 23  2  0  0  0  0
  7 22  1  0  0  0  0
 13 21  1  0  0  0  0
M  CHG  3  16  -1  17  -1  18  -1
M  END
> <SMILES QCArchive>
c1cc(cnc1)CC(O)(P(=O)([O-])[O-])P(=O)([O-])[O-]-4

> <Energy QCArchive>
-963088.947899681

$$$$
full_3674
  -OEChem-12021917203D

 24 25  0     1  0  0  0  0  0999 V2000
   -2.9565    1.8634   -4.0210 H   0  0  0  0  0  0  0  0  0  0  0  0
   -1.3046    2.3037   -5.7559 H   0  0  0  0  0  0  0  0  0  0  0  0
    1.8768    1.7617   -3.1189 H   0  0  0  0  0  0  0  0  0  0  0  0
    0.1451    2.0327   -0.1047 H   0  0  0  0  0  0  0  0  0  0  0  0
    1.6056    1.3085   -0.7677 H   0  0  0  0  0  0  0  0  0  0  0  0
   -1.9883    2.1753   -1.6050 H   0  0  0  0  0  0  0  0  0  0  0  0
    1.1896   -1.6566   -0.3166 H   0  0  0  0  0  0  0  0  0  0  0  0
   -1.8934    1.8552   -3.7521 C   0  0  0  0  0  0  0  0  0  0  0  0
   -0.9414    2.0770   -4.7328 C   0  0  0  0  0  0  0  0  0  0  0  0
    0.7902    1.7936   -3.2760 C   0  0  0  0  0  0  0  0  0  0  0  0
   -0.0088    1.5523   -2.1929 C   0  0  0  0  0  0  0  0  0  0  0  0
    0.5112    1.2612   -0.7975 C   0  0  0  0  0  0  0  0  0  0  0  0
   -1.5125    1.5014   -2.3384 C   0  0  0  0  0  0  0  0  0  0  0  0
    0.0979   -0.1113   -0.1659 C   0  0  2  0  0  0  0  0  0  0  0  0
    0.4100    2.0848   -4.5947 N   0  0  0  0  0  0  0  0  0  0  0  0
   -2.3905   -1.6046   -0.1463 O   0  5  0  0  0  0  0  0  0  0  0  0
    1.8477   -1.6744    1.2333 O   0  5  0  0  0  0  0  0  0  0  0  0
    0.0972   -0.5088    2.7798 O   0  5  0  0  0  0  0  0  0  0  0  0
   -2.4553    0.9551    0.4854 O   0  0  0  0  0  0  0  0  0  0  0  0
    2.0297    0.8762    1.7233 O   0  0  0  0  0  0  0  0  0  0  0  0
   -1.9947    0.1648   -1.9471 O   0  0  0  0  0  0  0  0  0  0  0  0
    0.6389   -1.1701   -0.9971 O   0  0  0  0  0  0  0  0  0  0  0  0
   -1.8026   -0.2038   -0.2754 P   0  0  1  0  0  0  0  0  0  0  0  0
    1.0726   -0.3436    1.5960 P   0  0  0  0  0  0  0  0  0  0  0  0
  8 13  1  0  0  0  0
  8  9  2  0  0  0  0
  1  8  1  0  0  0  0
 11 13  2  0  0  0  0
  6 13  1  0  0  0  0
  9 15  1  0  0  0  0
  2  9  1  0  0  0  0
 10 11  1  0  0  0  0
 10 15  2  0  0  0  0
  3 10  1  0  0  0  0
 11 12  1  0  0  0  0
 12 14  1  0  0  0  0
  4 12  1  0  0  0  0
  5 12  1  0  0  0  0
 14 22  1  0  0  0  0
 14 24  1  0  0  0  0
 14 23  1  0  0  0  0
 17 24  1  0  0  0  0
 18 24  1  0  0  0  0
 16 23  1  0  0  0  0
 21 23  1  0  0  0  0
 20 24  2  0  0  0  0
 19 23  2  0  0  0  0
  7 22  1  0  0  0  0
 13 21  1  0  0  0  0
M  CHG  3  16  -1  17  -1  18  -1
M  END
> <SMILES QCArchive>
c1cc(cnc1)CC(O)(P(=O)([O-])[O-])P(=O)([O-])[O-]-1

> <Energy QCArchive>
-963095.1757903344

$$$$
full_3674
  -OEChem-12021917203D

 24 25  0     1  0  0  0  0  0999 V2000
   -0.8841    1.9972   -5.7249 H   0  0  0  0  0  0  0  0  0  0  0  0
   -3.2642    2.1122   -5.2209 H   0  0  0  0  0  0  0  0  0  0  0  0
   -2.6516    1.0987   -1.2250 H   0  0  0  0  0  0  0  0  0  0  0  0
   -0.4750    0.7479   -0.2484 H   0  0  0  0  0  0  0  0  0  0  0  0
    0.7708    1.7269   -1.0164 H   0  0  0  0  0  0  0  0  0  0  0  0
    0.6100    2.1987   -3.5803 H   0  0  0  0  0  0  0  0  0  0  0  0
    0.4863   -2.1145   -0.7883 H   0  0  0  0  0  0  0  0  0  0  0  0
   -1.2151    1.8154   -4.6954 C   0  0  0  0  0  0  0  0  0  0  0  0
   -2.5671    1.8508   -4.3990 C   0  0  0  0  0  0  0  0  0  0  0  0
   -2.2167    1.3112   -2.2109 C   0  0  0  0  0  0  0  0  0  0  0  0
   -0.8566    1.2330   -2.3277 C   0  0  0  0  0  0  0  0  0  0  0  0
    0.0788    0.8884   -1.1833 C   0  0  0  0  0  0  0  0  0  0  0  0
   -0.1832    1.4359   -3.6658 C   0  0  0  0  0  0  0  0  0  0  0  0
    0.9807   -0.3773   -1.3704 C   0  0  1  0  0  0  0  0  0  0  0  0
   -3.1614    1.6331   -3.1969 N   0  0  0  0  0  0  0  0  0  0  0  0
    2.4783   -1.4173   -3.6278 O   0  5  0  0  0  0  0  0  0  0  0  0
    3.5021   -0.6079    0.1845 O   0  5  0  0  0  0  0  0  0  0  0  0
    1.4955   -2.2371    0.5643 O   0  5  0  0  0  0  0  0  0  0  0  0
    2.7520    1.1313   -3.0088 O   0  0  0  0  0  0  0  0  0  0  0  0
    1.3639    0.2204    1.4115 O   0  0  0  0  0  0  0  0  0  0  0  0
    0.5490    0.2107   -4.0336 O   0  0  0  0  0  0  0  0  0  0  0  0
    0.1121   -1.5310   -1.5104 O   0  0  0  0  0  0  0  0  0  0  0  0
    1.8998   -0.1420   -3.0243 P   0  0  2  0  0  0  0  0  0  0  0  0
    1.9749   -0.7448    0.3547 P   0  0  0  0  0  0  0  0  0  0  0  0
  8 13  1  0  0  0  0
  8  9  2  0  0  0  0
  1  8  1  0  0  0  0
 11 13  2  0  0  0  0
  6 13  1  0  0  0  0
  9 15  1  0  0  0  0
  2  9  1  0  0  0  0
 10 11  1  0  0  0  0
 10 15  2  0  0  0  0
  3 10  1  0  0  0  0
 11 12  1  0  0  0  0
 12 14  1  0  0  0  0
  4 12  1  0  0  0  0
  5 12  1  0  0  0  0
 14 22  1  0  0  0  0
 14 24  1  0  0  0  0
 14 23  1  0  0  0  0
 17 24  1  0  0  0  0
 18 24  1  0  0  0  0
 16 23  1  0  0  0  0
 21 23  1  0  0  0  0
 20 24  2  0  0  0  0
 19 23  2  0  0  0  0
  7 22  1  0  0  0  0
 13 21  1  0  0  0  0
M  CHG  3  16  -1  17  -1  18  -1
M  END
> <SMILES QCArchive>
c1cc(cnc1)CC(O)(P(=O)([O-])[O-])P(=O)([O-])[O-]-5

> <Energy QCArchive>
-963095.1925430275

$$$$
