full_2208
  -OEChem-12021917253D

 29 31  0     0  0  0  0  0  0999 V2000
   -2.2971   -0.8115   -1.6474 H   0  0  0  0  0  0  0  0  0  0  0  0
   -0.8682   -0.3629    0.3274 H   0  0  0  0  0  0  0  0  0  0  0  0
   -2.1225   -2.9587   -2.8638 H   0  0  0  0  0  0  0  0  0  0  0  0
    0.7201   -2.0884    1.1669 H   0  0  0  0  0  0  0  0  0  0  0  0
    1.2368   -5.0895   -5.1352 H   0  0  0  0  0  0  0  0  0  0  0  0
    0.1353   -5.1651   -6.5313 H   0  0  0  0  0  0  0  0  0  0  0  0
    0.9990   -3.6630   -6.1607 H   0  0  0  0  0  0  0  0  0  0  0  0
   -1.3961   -3.5060   -5.4019 H   0  0  0  0  0  0  0  0  0  0  0  0
   -0.2745   -3.4062   -4.0449 H   0  0  0  0  0  0  0  0  0  0  0  0
    1.6719   -4.6772    0.6111 H   0  0  0  0  0  0  0  0  0  0  0  0
   -1.5805   -1.5588   -1.3203 C   0  0  0  0  0  0  0  0  0  0  0  0
   -0.7764   -1.3091   -0.1988 C   0  0  0  0  0  0  0  0  0  0  0  0
   -1.4718   -2.7655   -2.0174 C   0  0  0  0  0  0  0  0  0  0  0  0
    0.1287   -2.2699    0.2737 C   0  0  0  0  0  0  0  0  0  0  0  0
   -0.5364   -3.7224   -1.5951 C   0  0  0  0  0  0  0  0  0  0  0  0
    0.2267   -3.4686   -0.4244 C   0  0  0  0  0  0  0  0  0  0  0  0
   -0.2718   -5.0962   -2.0013 C   0  0  0  0  0  0  0  0  0  0  0  0
   -0.8084   -5.8050   -3.0493 C   0  0  0  0  0  0  0  0  0  0  0  0
    0.7531   -5.6406   -1.0248 C   0  0  0  0  0  0  0  0  0  0  0  0
   -1.1225   -7.2675   -2.9820 C   0  0  0  0  0  0  0  0  0  0  0  0
   -2.1823   -5.9878   -4.9740 C   0  0  0  0  0  0  0  0  0  0  0  0
    0.4992   -4.5310   -5.7193 C   0  0  0  0  0  0  0  0  0  0  0  0
   -0.6494   -4.0558   -4.8297 C   0  0  0  0  0  0  0  0  0  0  0  0
    0.9739   -4.6010   -0.1171 N   0  0  0  0  0  0  0  0  0  0  0  0
   -1.3400   -5.2086   -4.1948 N   0  0  0  0  0  0  0  0  0  0  0  0
    1.3715   -6.6888   -1.0386 O   0  0  0  0  0  0  0  0  0  0  0  0
   -0.7897   -8.0894   -2.1662 O   0  0  0  0  0  0  0  0  0  0  0  0
   -2.9335   -5.5207   -6.3645 S   0  0  0  0  0  0  0  0  0  0  0  0
   -2.3186   -7.6154   -4.3096 S   0  0  0  0  0  0  0  0  0  0  0  0
 11 12  1  0  0  0  0
 11 13  2  0  0  0  0
  1 11  1  0  0  0  0
 12 14  2  0  0  0  0
  2 12  1  0  0  0  0
 13 15  1  0  0  0  0
  3 13  1  0  0  0  0
 14 16  1  0  0  0  0
  4 14  1  0  0  0  0
 15 16  2  0  0  0  0
 15 17  1  0  0  0  0
 16 24  1  0  0  0  0
 17 18  2  3  0  0  0
 17 19  1  0  0  0  0
 18 20  1  0  0  0  0
 18 25  1  0  0  0  0
 19 24  1  0  0  0  0
 19 26  2  0  0  0  0
 20 27  2  0  0  0  0
 20 29  1  0  0  0  0
 21 25  1  0  0  0  0
 21 28  2  0  0  0  0
 21 29  1  0  0  0  0
 22 23  1  0  0  0  0
  5 22  1  0  0  0  0
  6 22  1  0  0  0  0
  7 22  1  0  0  0  0
 23 25  1  0  0  0  0
  8 23  1  0  0  0  0
  9 23  1  0  0  0  0
 10 24  1  0  0  0  0
M  END
> <SMILES QCArchive>
CCN1/C(=C/2\c3ccccc3NC2=O)/C(=O)SC1=S-0

> <Energy QCArchive>
-977558.3912649157

$$$$
full_3094
  -OEChem-12021917253D

 28 30  0     0  0  0  0  0  0999 V2000
    1.1954    2.2490    2.1558 H   0  0  0  0  0  0  0  0  0  0  0  0
    1.8937   -0.0902    1.7527 H   0  0  0  0  0  0  0  0  0  0  0  0
  -10.0405    3.1920    4.1909 H   0  0  0  0  0  0  0  0  0  0  0  0
   -1.2388    2.8385    2.2773 H   0  0  0  0  0  0  0  0  0  0  0  0
    0.2025   -1.8991    1.4658 H   0  0  0  0  0  0  0  0  0  0  0  0
   -7.3947    3.0784    3.9739 H   0  0  0  0  0  0  0  0  0  0  0  0
  -11.2123    1.9312    2.1908 H   0  0  0  0  0  0  0  0  0  0  0  0
   -2.5956   -2.3018    1.2652 H   0  0  0  0  0  0  0  0  0  0  0  0
   -5.6766    0.2912    0.5725 H   0  0  0  0  0  0  0  0  0  0  0  0
    0.4404    1.4788    2.0278 C   0  0  0  0  0  0  0  0  0  0  0  0
    0.8359    0.1536    1.7994 C   0  0  0  0  0  0  0  0  0  0  0  0
   -9.5114    2.6841    3.3912 C   0  0  0  0  0  0  0  0  0  0  0  0
   -0.9179    1.8173    2.0945 C   0  0  0  0  0  0  0  0  0  0  0  0
   -0.1096   -0.8718    1.6336 C   0  0  0  0  0  0  0  0  0  0  0  0
   -8.0952    2.6255    3.2815 C   0  0  0  0  0  0  0  0  0  0  0  0
  -10.1470    2.0309    2.3584 C   0  0  0  0  0  0  0  0  0  0  0  0
   -1.8647    0.8108    1.9175 C   0  0  0  0  0  0  0  0  0  0  0  0
   -3.3311    0.8151    1.9606 C   0  0  0  0  0  0  0  0  0  0  0  0
   -1.4504   -0.5171    1.6944 C   0  0  0  0  0  0  0  0  0  0  0  0
   -7.6769    1.9211    2.1696 C   0  0  0  0  0  0  0  0  0  0  0  0
   -3.7548   -0.6028    1.6398 C   0  0  0  0  0  0  0  0  0  0  0  0
   -6.3153    1.6232    1.7493 C   0  0  0  0  0  0  0  0  0  0  0  0
   -4.0341    1.8559    2.2716 N   0  0  0  0  0  0  0  0  0  0  0  0
   -5.3421    1.8737    2.5653 N   0  0  0  0  0  0  0  0  0  0  0  0
   -2.5950   -1.3359    1.5702 N   0  0  0  0  0  0  0  0  0  0  0  0
   -4.8880   -1.0320    1.3969 O   0  5  0  0  0  0  0  0  0  0  0  0
   -6.1849    1.1386    0.4889 O   0  3  0  0  0  0  0  0  0  0  0  0
   -9.0301    1.3356    1.2400 S   0  0  0  0  0  0  0  0  0  0  0  0
 10 11  1  0  0  0  0
 10 13  2  0  0  0  0
  1 10  1  0  0  0  0
 11 14  2  0  0  0  0
  2 11  1  0  0  0  0
 12 15  1  0  0  0  0
 12 16  2  0  0  0  0
  3 12  1  0  0  0  0
 13 17  1  0  0  0  0
  4 13  1  0  0  0  0
 14 19  1  0  0  0  0
  5 14  1  0  0  0  0
 15 20  2  0  0  0  0
  6 15  1  0  0  0  0
 16 28  1  0  0  0  0
  7 16  1  0  0  0  0
 17 18  1  0  0  0  0
 17 19  2  0  0  0  0
 18 21  2  0  0  0  0
 18 23  1  0  0  0  0
 19 25  1  0  0  0  0
 20 22  1  0  0  0  0
 20 28  1  0  0  0  0
 21 25  1  0  0  0  0
 21 26  1  0  0  0  0
 22 24  1  0  0  0  0
 22 27  2  3  0  0  0
 23 24  2  3  0  0  0
  8 25  1  0  0  0  0
  9 27  1  0  0  0  0
M  CHG  2  26  -1  27   1
M  END
> <SMILES QCArchive>
c1ccc2c(c1)c(c([nH]2)O)/N=N\C(=O)c3cccs3-4

> <Energy QCArchive>
-761655.5040047318

$$$$
full_3094
  -OEChem-12021917253D

 28 30  0     0  0  0  0  0  0999 V2000
   -0.3270    3.0835    0.7381 H   0  0  0  0  0  0  0  0  0  0  0  0
   -1.0577    1.8906   -1.3028 H   0  0  0  0  0  0  0  0  0  0  0  0
   -5.6756   -0.6376   10.1617 H   0  0  0  0  0  0  0  0  0  0  0  0
   -1.0392    2.2704    3.0007 H   0  0  0  0  0  0  0  0  0  0  0  0
   -2.5120   -0.1284   -1.1535 H   0  0  0  0  0  0  0  0  0  0  0  0
   -4.5485    0.4741    8.0278 H   0  0  0  0  0  0  0  0  0  0  0  0
   -5.3681   -3.2583   10.1413 H   0  0  0  0  0  0  0  0  0  0  0  0
   -3.6806   -1.8792    0.7443 H   0  0  0  0  0  0  0  0  0  0  0  0
   -2.9361   -2.4786    4.7152 H   0  0  0  0  0  0  0  0  0  0  0  0
   -0.9555    2.2023    0.8284 C   0  0  0  0  0  0  0  0  0  0  0  0
   -1.3694    1.5264   -0.3278 C   0  0  0  0  0  0  0  0  0  0  0  0
   -5.1659   -1.1898    9.3790 C   0  0  0  0  0  0  0  0  0  0  0  0
   -1.3467    1.7530    2.0968 C   0  0  0  0  0  0  0  0  0  0  0  0
   -2.1864    0.3863   -0.2536 C   0  0  0  0  0  0  0  0  0  0  0  0
   -4.5662   -0.5892    8.2385 C   0  0  0  0  0  0  0  0  0  0  0  0
   -5.0203   -2.5595    9.3907 C   0  0  0  0  0  0  0  0  0  0  0  0
   -2.1453    0.6146    2.1833 C   0  0  0  0  0  0  0  0  0  0  0  0
   -2.7471   -0.0858    3.3231 C   0  0  0  0  0  0  0  0  0  0  0  0
   -2.5573   -0.0495    1.0113 C   0  0  0  0  0  0  0  0  0  0  0  0
   -3.9802   -1.5144    7.3969 C   0  0  0  0  0  0  0  0  0  0  0  0
   -3.4652   -1.2829    2.7363 C   0  0  0  0  0  0  0  0  0  0  0  0
   -3.3071   -1.2806    6.1274 C   0  0  0  0  0  0  0  0  0  0  0  0
   -2.6708    0.3375    4.5435 N   0  0  0  0  0  0  0  0  0  0  0  0
   -3.3865   -0.1072    5.5864 N   0  0  0  0  0  0  0  0  0  0  0  0
   -3.3683   -1.1486    1.3726 N   0  0  0  0  0  0  0  0  0  0  0  0
   -3.9685   -2.2450    3.3265 O   0  5  0  0  0  0  0  0  0  0  0  0
   -2.6021   -2.3306    5.6371 O   0  3  0  0  0  0  0  0  0  0  0  0
   -4.1525   -3.1356    8.0134 S   0  0  0  0  0  0  0  0  0  0  0  0
 10 11  1  0  0  0  0
 10 13  2  0  0  0  0
  1 10  1  0  0  0  0
 11 14  2  0  0  0  0
  2 11  1  0  0  0  0
 12 15  1  0  0  0  0
 12 16  2  0  0  0  0
  3 12  1  0  0  0  0
 13 17  1  0  0  0  0
  4 13  1  0  0  0  0
 14 19  1  0  0  0  0
  5 14  1  0  0  0  0
 15 20  2  0  0  0  0
  6 15  1  0  0  0  0
 16 28  1  0  0  0  0
  7 16  1  0  0  0  0
 17 18  1  0  0  0  0
 17 19  2  0  0  0  0
 18 21  2  0  0  0  0
 18 23  1  0  0  0  0
 19 25  1  0  0  0  0
 20 22  1  0  0  0  0
 20 28  1  0  0  0  0
 21 25  1  0  0  0  0
 21 26  1  0  0  0  0
 22 24  1  0  0  0  0
 22 27  2  3  0  0  0
 23 24  2  3  0  0  0
  8 25  1  0  0  0  0
  9 27  1  0  0  0  0
M  CHG  2  26  -1  27   1
M  END
> <SMILES QCArchive>
c1ccc2c(c1)c(c([nH]2)O)/N=N\C(=O)c3cccs3-5

> <Energy QCArchive>
-761655.504217114

$$$$
full_3094
  -OEChem-12021917253D

 28 30  0     0  0  0  0  0  0999 V2000
   -2.8409    2.7988   -1.6782 H   0  0  0  0  0  0  0  0  0  0  0  0
   -3.8348    0.7541   -2.6545 H   0  0  0  0  0  0  0  0  0  0  0  0
   -0.3140   -0.3206    9.8693 H   0  0  0  0  0  0  0  0  0  0  0  0
   -2.0279    2.8003    0.6941 H   0  0  0  0  0  0  0  0  0  0  0  0
   -4.0424   -1.3354   -1.3111 H   0  0  0  0  0  0  0  0  0  0  0  0
   -2.2067   -0.3950    8.0051 H   0  0  0  0  0  0  0  0  0  0  0  0
    1.9256    0.6857    8.9054 H   0  0  0  0  0  0  0  0  0  0  0  0
   -3.6298   -2.3326    1.3099 H   0  0  0  0  0  0  0  0  0  0  0  0
   -3.0691   -0.4378    4.8865 H   0  0  0  0  0  0  0  0  0  0  0  0
   -2.9266    1.9021   -1.0713 C   0  0  0  0  0  0  0  0  0  0  0  0
   -3.4896    0.7436   -1.6243 C   0  0  0  0  0  0  0  0  0  0  0  0
   -0.1825    0.0188    8.8472 C   0  0  0  0  0  0  0  0  0  0  0  0
   -2.4722    1.9124    0.2543 C   0  0  0  0  0  0  0  0  0  0  0  0
   -3.6135   -0.4376   -0.8743 C   0  0  0  0  0  0  0  0  0  0  0  0
   -1.1999   -0.0242    7.8517 C   0  0  0  0  0  0  0  0  0  0  0  0
    0.9960    0.5426    8.3682 C   0  0  0  0  0  0  0  0  0  0  0  0
   -2.6033    0.7508    1.0122 C   0  0  0  0  0  0  0  0  0  0  0  0
   -2.2091    0.4182    2.3855 C   0  0  0  0  0  0  0  0  0  0  0  0
   -3.1656   -0.4067    0.4394 C   0  0  0  0  0  0  0  0  0  0  0  0
   -0.7730    0.4646    6.6337 C   0  0  0  0  0  0  0  0  0  0  0  0
   -2.6786   -1.0035    2.6141 C   0  0  0  0  0  0  0  0  0  0  0  0
   -1.5526    0.5507    5.4092 C   0  0  0  0  0  0  0  0  0  0  0  0
   -1.5498    1.2239    3.1537 N   0  0  0  0  0  0  0  0  0  0  0  0
   -0.9591    0.9112    4.3150 N   0  0  0  0  0  0  0  0  0  0  0  0
   -3.1630   -1.4386    1.4045 N   0  0  0  0  0  0  0  0  0  0  0  0
   -2.7158   -1.6427    3.6712 O   0  5  0  0  0  0  0  0  0  0  0  0
   -2.8750    0.2845    5.5376 O   0  3  0  0  0  0  0  0  0  0  0  0
    0.8860    0.9961    6.7027 S   0  0  0  0  0  0  0  0  0  0  0  0
 10 11  1  0  0  0  0
 10 13  2  0  0  0  0
  1 10  1  0  0  0  0
 11 14  2  0  0  0  0
  2 11  1  0  0  0  0
 12 15  1  0  0  0  0
 12 16  2  0  0  0  0
  3 12  1  0  0  0  0
 13 17  1  0  0  0  0
  4 13  1  0  0  0  0
 14 19  1  0  0  0  0
  5 14  1  0  0  0  0
 15 20  2  0  0  0  0
  6 15  1  0  0  0  0
 16 28  1  0  0  0  0
  7 16  1  0  0  0  0
 17 18  1  0  0  0  0
 17 19  2  0  0  0  0
 18 21  2  0  0  0  0
 18 23  1  0  0  0  0
 19 25  1  0  0  0  0
 20 22  1  0  0  0  0
 20 28  1  0  0  0  0
 21 25  1  0  0  0  0
 21 26  1  0  0  0  0
 22 24  1  0  0  0  0
 22 27  2  3  0  0  0
 23 24  2  3  0  0  0
  8 25  1  0  0  0  0
  9 27  1  0  0  0  0
M  CHG  2  26  -1  27   1
M  END
> <SMILES QCArchive>
c1ccc2c(c1)c(c([nH]2)O)/N=N\C(=O)c3cccs3-6

> <Energy QCArchive>
-761656.1879358896

$$$$
full_3094
  -OEChem-12021917253D

 28 30  0     0  0  0  0  0  0999 V2000
    1.6206   -1.0533    3.8429 H   0  0  0  0  0  0  0  0  0  0  0  0
    0.9155   -3.3284    3.1729 H   0  0  0  0  0  0  0  0  0  0  0  0
   -7.7642    6.0697    0.5819 H   0  0  0  0  0  0  0  0  0  0  0  0
    0.1411    0.9171    3.3767 H   0  0  0  0  0  0  0  0  0  0  0  0
   -1.2635   -3.7064    2.0228 H   0  0  0  0  0  0  0  0  0  0  0  0
   -7.1326    3.8120    1.8338 H   0  0  0  0  0  0  0  0  0  0  0  0
   -5.6278    7.1914   -0.4836 H   0  0  0  0  0  0  0  0  0  0  0  0
   -3.6070   -2.3325    1.2136 H   0  0  0  0  0  0  0  0  0  0  0  0
   -5.1243    1.3116    2.2611 H   0  0  0  0  0  0  0  0  0  0  0  0
    0.6638   -1.1941    3.3485 C   0  0  0  0  0  0  0  0  0  0  0  0
    0.2642   -2.4830    2.9689 C   0  0  0  0  0  0  0  0  0  0  0  0
   -6.7600    5.6638    0.6464 C   0  0  0  0  0  0  0  0  0  0  0  0
   -0.1580   -0.0878    3.0943 C   0  0  0  0  0  0  0  0  0  0  0  0
   -0.9630   -2.7062    2.3230 C   0  0  0  0  0  0  0  0  0  0  0  0
   -6.4272    4.4528    1.3177 C   0  0  0  0  0  0  0  0  0  0  0  0
   -5.6603    6.2692    0.0836 C   0  0  0  0  0  0  0  0  0  0  0  0
   -1.3840   -0.2992    2.4670 C   0  0  0  0  0  0  0  0  0  0  0  0
   -2.4429    0.6191    2.0345 C   0  0  0  0  0  0  0  0  0  0  0  0
   -1.7678   -1.6000    2.0865 C   0  0  0  0  0  0  0  0  0  0  0  0
   -5.0805    4.1593    1.2484 C   0  0  0  0  0  0  0  0  0  0  0  0
   -3.5355   -0.2576    1.4578 C   0  0  0  0  0  0  0  0  0  0  0  0
   -4.4128    2.9978    1.8136 C   0  0  0  0  0  0  0  0  0  0  0  0
   -2.3501    1.9067    2.1203 N   0  0  0  0  0  0  0  0  0  0  0  0
   -3.1606    2.8033    1.5421 N   0  0  0  0  0  0  0  0  0  0  0  0
   -3.0314   -1.5355    1.4577 N   0  0  0  0  0  0  0  0  0  0  0  0
   -4.6835    0.0584    1.1265 O   0  5  0  0  0  0  0  0  0  0  0  0
   -5.1698    2.2293    2.6341 O   0  3  0  0  0  0  0  0  0  0  0  0
   -4.2036    5.3801    0.3650 S   0  0  0  0  0  0  0  0  0  0  0  0
 10 11  1  0  0  0  0
 10 13  2  0  0  0  0
  1 10  1  0  0  0  0
 11 14  2  0  0  0  0
  2 11  1  0  0  0  0
 12 15  1  0  0  0  0
 12 16  2  0  0  0  0
  3 12  1  0  0  0  0
 13 17  1  0  0  0  0
  4 13  1  0  0  0  0
 14 19  1  0  0  0  0
  5 14  1  0  0  0  0
 15 20  2  0  0  0  0
  6 15  1  0  0  0  0
 16 28  1  0  0  0  0
  7 16  1  0  0  0  0
 17 18  1  0  0  0  0
 17 19  2  0  0  0  0
 18 21  2  0  0  0  0
 18 23  1  0  0  0  0
 19 25  1  0  0  0  0
 20 22  1  0  0  0  0
 20 28  1  0  0  0  0
 21 25  1  0  0  0  0
 21 26  1  0  0  0  0
 22 24  1  0  0  0  0
 22 27  2  3  0  0  0
 23 24  2  3  0  0  0
  8 25  1  0  0  0  0
  9 27  1  0  0  0  0
M  CHG  2  26  -1  27   1
M  END
> <SMILES QCArchive>
c1ccc2c(c1)c(c([nH]2)O)/N=N\C(=O)c3cccs3-7

> <Energy QCArchive>
-761656.1879445332

$$$$
